#======================================================================

# CRYSTAL DATA

#----------------------------------------------------------------------

data_VESTA_phase_1


_chemical_name_common                  'P    Ru   C    O                      '
_cell_length_a                         13.25440
_cell_length_b                         13.12890
_cell_length_c                         20.00000
_cell_angle_alpha                      90
_cell_angle_beta                       90
_cell_angle_gamma                      90
_space_group_name_H-M_alt              'P 1'
_space_group_IT_number                 1

loop_
_space_group_symop_operation_xyz
   'x, y, z'

loop_
   _atom_site_label
   _atom_site_occupancy
   _atom_site_fract_x
   _atom_site_fract_y
   _atom_site_fract_z
   _atom_site_adp_type
   _atom_site_B_iso_or_equiv
   _atom_site_type_symbol
   P1         1.0     0.068150      0.208841      0.043405     Biso  1.000000 P
   P2         1.0     0.194441      0.319989      0.042793     Biso  1.000000 P
   P3         1.0     0.191177      0.037786      0.146131     Biso  1.000000 P
   P4         1.0     0.066871      0.151643      0.148789     Biso  1.000000 P
   P5         1.0     0.310739      0.197930      0.037882     Biso  1.000000 P
   P6         1.0     0.441876      0.302241      0.024290     Biso  1.000000 P
   P7         1.0     0.440918      0.037658      0.146048     Biso  1.000000 P
   P8         1.0     0.316332      0.150689      0.145612     Biso  1.000000 P
   P9         1.0     0.571898      0.196158      0.036891     Biso  1.000000 P
   P10        1.0     0.689597      0.317390      0.040453     Biso  1.000000 P
   P11        1.0     0.690800      0.037803      0.146374     Biso  1.000000 P
   P12        1.0     0.565604      0.150685      0.144929     Biso  1.000000 P
   P13        1.0     0.815994      0.206604      0.042463     Biso  1.000000 P
   P14        1.0     0.941365      0.319309      0.041094     Biso  1.000000 P
   P15        1.0     0.941175      0.038984      0.147700     Biso  1.000000 P
   P16        1.0     0.815506      0.151471      0.148266     Biso  1.000000 P
   P17        1.0     0.066121      0.537728      0.033395     Biso  1.000000 P
   P18        1.0     0.190310      0.652336      0.031052     Biso  1.000000 P
   P19        1.0     0.195344      0.383796      0.148419     Biso  1.000000 P
   P20        1.0     0.066567      0.492120      0.141320     Biso  1.000000 P
   P21        1.0     0.317170      0.541494      0.026507     Biso  1.000000 P
   P22        1.0     0.440935      0.653737      0.024884     Biso  1.000000 P
   P23        1.0     0.441072      0.358940      0.128598     Biso  1.000000 P
   P24        1.0     0.331556      0.485059      0.132860     Biso  1.000000 P
   P25        1.0     0.564035      0.540120      0.028959     Biso  1.000000 P
   P26        1.0     0.690853      0.651057      0.032178     Biso  1.000000 P
   P27        1.0     0.687791      0.379269      0.145844     Biso  1.000000 P
   P28        1.0     0.553123      0.483507      0.135287     Biso  1.000000 P
   P29        1.0     0.815390      0.536984      0.033946     Biso  1.000000 P
   P30        1.0     0.940358      0.650536      0.033938     Biso  1.000000 P
   P31        1.0     0.941272      0.378386      0.145601     Biso  1.000000 P
   P32        1.0     0.814668      0.490156      0.141579     Biso  1.000000 P
   P33        1.0     0.064883      0.872320      0.038940     Biso  1.000000 P
   P34        1.0     0.189010      0.985669      0.039428     Biso  1.000000 P
   P35        1.0     0.191673      0.699029      0.138716     Biso  1.000000 P
   P36        1.0     0.066179      0.811527      0.143626     Biso  1.000000 P
   P37        1.0     0.314908      0.873972      0.038139     Biso  1.000000 P
   P38        1.0     0.440870      0.985595      0.039742     Biso  1.000000 P
   P39        1.0     0.437708      0.700789      0.134532     Biso  1.000000 P
   P40        1.0     0.314142      0.814498      0.143251     Biso  1.000000 P
   P41        1.0     0.565483      0.872569      0.039666     Biso  1.000000 P
   P42        1.0     0.691299      0.984201      0.040116     Biso  1.000000 P
   P43        1.0     0.689716      0.698705      0.139501     Biso  1.000000 P
   P44        1.0     0.564964      0.811377      0.144787     Biso  1.000000 P
   P45        1.0     0.816430      0.871990      0.039353     Biso  1.000000 P
   P46        1.0     0.940744      0.985681      0.041218     Biso  1.000000 P
   P47        1.0     0.940498      0.699816      0.141090     Biso  1.000000 P
   P48        1.0     0.814931      0.811723      0.144035     Biso  1.000000 P
   Ru1        1.0     0.430833      0.568419      0.206594     Biso  1.000000 Ru
   C1         1.0     0.347406      0.628290      0.278949     Biso  1.000000 C
   O1         1.0     0.441732      0.582775      0.318302     Biso  1.000000 O
   O2         1.0     0.437868      0.478691      0.291323     Biso  1.000000 O
   O3         1.0     0.286078      0.680764      0.305035     Biso  1.000000 O
